data/Network_10R-10/scenario_5/case.raw
 0,    100.00, 33, 0, 1, 60.00       / March 19, 2019 17:58:35; Simulator Version 20 (64 bit); BuildDate 2019_3_5


    1,'19155031900 ',  69.0000,3,   1,   1,   1,1.00999999, -10.810000, 1.09000, 0.89900, 1.09000, 0.89900
    2,'19193003600 ', 138.0000,2,   1,   1,   1,1.00000000, -20.867080, 1.09000, 0.89900, 1.09000, 0.89900
    3,'19115450100 ',  69.0000,2,   1,   1,   1,1.00999999, -23.018246, 1.09000, 0.89900, 1.09000, 0.89900
    4,'19179960200 ',  69.0000,2,   1,   1,   1,1.00999999, -29.799378, 1.09000, 0.89900, 1.09000, 0.89900
    5,'19193002102 ',  69.0000,2,   1,   1,   1,1.00999999, -20.514226, 1.09000, 0.89900, 1.09000, 0.89900
    6,'19113010600 ',  69.0000,2,   1,   1,   1,1.00999999, -26.822165, 1.09000, 0.89900, 1.09000, 0.89900
    7,'19033950700 ',  69.0000,2,   1,   1,   1,1.00999999, -31.695541, 1.09000, 0.89900, 1.09000, 0.89900
    8,'19153003902 ',  69.0000,2,   1,   1,   1,1.00999999, -37.656694, 1.09000, 0.89900, 1.09000, 0.89900
    9,'19005960100 ',  69.0000,2,   1,   1,   1,1.00999999, -32.029810, 1.09000, 0.89900, 1.09000, 0.89900
   10,'19131560100 ',  69.0000,2,   1,   1,   1,1.00999999, -41.115430, 1.09000, 0.89900, 1.09000, 0.89900
   11,'19139051000 ',  69.0000,2,   1,   1,   1,1.00999999, -23.319161, 1.09000, 0.89900, 1.09000, 0.89900
   12,'19013001501 ',  69.0000,2,   1,   1,   1,1.00999999, -38.898569, 1.09000, 0.89900, 1.09000, 0.89900
   13,'19151780300 ', 138.0000,2,   1,   1,   1,1.00000000, -34.275221, 1.09000, 0.89900, 1.09000, 0.89900
   14,'19113010700 ',  69.0000,2,   1,   1,   1,1.00999999, -30.471004, 1.09000, 0.89900, 1.09000, 0.89900
   15,'19113003002 ',  69.0000,2,   1,   1,   1,1.00999999, -33.454526, 1.09000, 0.89900, 1.09000, 0.89900
   16,'19197680400 ',  69.0000,2,   1,   1,   1,1.00686169, -32.448231, 1.09000, 0.89900, 1.09000, 0.89900
   17,'19045000200 ', 345.0000,2,   1,   1,   1,1.00740421, -23.920858, 1.09000, 0.89900, 1.09000, 0.89900
   18,'19057000700 ',  69.0000,2,   1,   1,   1,1.00999999, -29.147945, 1.09000, 0.89900, 1.09000, 0.89900
   19,'19081270100 ', 345.0000,2,   1,   1,   1,1.00000000, -31.947517, 1.09000, 0.89900, 1.09000, 0.89900
   20,'19069360200 ',  69.0000,2,   1,   1,   1,1.00999999, -37.306333, 1.09000, 0.89900, 1.09000, 0.89900
   21,'19127950500 ',  69.0000,2,   1,   1,   1,1.00999999, -33.553021, 1.09000, 0.89900, 1.09000, 0.89900
   22,'19021960600 ',  69.0000,2,   1,   1,   1,1.00999999, -33.176770, 1.09000, 0.89900, 1.09000, 0.89900
   23,'19009070300 ',  69.0000,2,   1,   1,   1,1.00999999, -24.902074, 1.09000, 0.89900, 1.09000, 0.89900
   24,'19045000300 ',  69.0000,2,   1,   1,   1,1.00999999, -24.964932, 1.09000, 0.89900, 1.09000, 0.89900
   25,'19153010802 ',  69.0000,2,   1,   1,   1,1.00999999, -42.392112, 1.09000, 0.89900, 1.09000, 0.89900
   26,'19001960100 ',  69.0000,2,   1,   1,   1,1.00999999, -25.541084, 1.09000, 0.89900, 1.09000, 0.89900
   27,'19195690100 ', 230.0000,2,   1,   1,   1,1.00000000, -39.538927, 1.09000, 0.89900, 1.09000, 0.89900
   28,'19153011702 ',  69.0000,2,   1,   1,   1,1.00999999, -43.790942, 1.09000, 0.89900, 1.09000, 0.89900
   29,'19155021502 ',  69.0000,2,   1,   1,   1,1.00999999, -18.597582, 1.09000, 0.89900, 1.09000, 0.89900
   30,'19027960300 ',  69.0000,2,   1,   1,   1,1.00999999, -28.535589, 1.09000, 0.89900, 1.09000, 0.89900
   31,'19081270300 ', 345.0000,2,   1,   1,   1,1.00000000, -33.505763, 1.09000, 0.89900, 1.09000, 0.89900
   32,'19127950200 ',  69.0000,2,   1,   1,   1,1.00999999, -42.305485, 1.09000, 0.89900, 1.09000, 0.89900
   33,'19169010500 ',  69.0000,2,   1,   1,   1,1.00999999, -42.169407, 1.09000, 0.89900, 1.09000, 0.89900
   34,'19163013702 ',  69.0000,2,   1,   1,   1,1.00999999, -27.052153, 1.09000, 0.89900, 1.09000, 0.89900
   35,'19153005100 ',  69.0000,2,   1,   1,   1,1.00999999, -39.176804, 1.09000, 0.89900, 1.09000, 0.89900
   36,'19111490900 ',  69.0000,2,   1,   1,   1,1.00999999, -30.063481, 1.09000, 0.89900, 1.09000, 0.89900
   37,'19127950900 ',  69.0000,2,   1,   1,   1,1.00999999, -33.405130, 1.09000, 0.89900, 1.09000, 0.89900
   38,'19035080400 ',  69.0000,2,   1,   1,   1,1.00999999, -24.834546, 1.09000, 0.89900, 1.09000, 0.89900
   39,'19169000900 ',  69.0000,2,   1,   1,   1,1.00843453, -44.344006, 1.09000, 0.89900, 1.09000, 0.89900
   40,'19059450200 ',  69.0000,2,   1,   1,   1,1.00999999, -18.985329, 1.09000, 0.89900, 1.09000, 0.89900
   41,'27105105500 ',  69.0000,2,   1,   1,   1,1.00999999, -20.072666, 1.09000, 0.89900, 1.09000, 0.89900
   42,'19089960300 ',  69.0000,2,   1,   1,   1,1.00999999, -45.358422, 1.09000, 0.89900, 1.09000, 0.89900
   43,'19047070100 ',  69.0000,2,   1,   1,   1,1.00999999, -29.311712, 1.09000, 0.89900, 1.09000, 0.89900
   44,'19081270200 ', 138.0000,2,   1,   1,   1,1.00000000, -32.832989, 1.09000, 0.89900, 1.09000, 0.89900
   45,'19033950102 ',  69.0000,2,   1,   1,   1,1.00999999, -35.933813, 1.09000, 0.89900, 1.09000, 0.89900
   46,'19175190400 ',  69.0000,2,   1,   1,   1,1.00999999, -31.734483, 1.09000, 0.89900, 1.09000, 0.89900
   47,'19113001900 ',  69.0000,2,   1,   1,   1,1.00613832, -31.654474, 1.09000, 0.89900, 1.09000, 0.89900
   48,'19041080300 ',  69.0000,2,   1,   1,   1,1.00999999, -27.897013, 1.09000, 0.89900, 1.09000, 0.89900
   49,'19021960200 ',  69.0000,2,   1,   1,   1,1.00999999, -31.817425, 1.09000, 0.89900, 1.09000, 0.89900
   50,'19195690300 ', 138.0000,2,   1,   1,   1,1.00000000, -38.616469, 1.09000, 0.89900, 1.09000, 0.89900
   51,'19195690200 ',  69.0000,2,   1,   1,   1,1.00999999, -36.390596, 1.09000, 0.89900, 1.09000, 0.89900
   52,'19057000600 ',  69.0000,2,   1,   1,   1,1.00999999, -29.474589, 1.09000, 0.89900, 1.09000, 0.89900
   53,'19057000300 ',  69.0000,2,   1,   1,   1,1.00999999, -29.721322, 1.09000, 0.89900, 1.09000, 0.89900
   54,'19169001000 ',  69.0000,2,   1,   1,   1,1.00999999, -44.763154, 1.09000, 0.89900, 1.09000, 0.89900
   55,'19067480400 ',  69.0000,2,   1,   1,   1,1.00999999, -40.711527, 1.09000, 0.89900, 1.09000, 0.89900
   56,'19103000200 ', 230.0000,2,   1,   1,   1,1.00362539, -29.014835, 1.09000, 0.89900, 1.09000, 0.89900
   57,'19061000100 ',  69.0000,2,   1,   1,   1,1.00999999, -33.759313, 1.09000, 0.89900, 1.09000, 0.89900
   58,'19189680200 ',  69.0000,2,   1,   1,   1,1.00999999, -30.998971, 1.09000, 0.89900, 1.09000, 0.89900
   59,'17161024103 ',  69.0000,2,   1,   1,   1,1.00999999, -25.078281, 1.09000, 0.89900, 1.09000, 0.89900
   60,'19007950300 ',  69.0000,2,   1,   1,   1,1.00999999, -35.323566, 1.09000, 0.89900, 1.09000, 0.89900
   61,'19181021000 ',  69.0000,2,   1,   1,   1,1.00999999, -44.258062, 1.09000, 0.89900, 1.09000, 0.89900
   62,'19111491000 ',  69.0000,2,   1,   1,   1,1.00999999, -30.338304, 1.09000, 0.89900, 1.09000, 0.89900
   63,'19143460200 ',  69.0000,2,   1,   1,   1,1.00999999, -18.653144, 1.09000, 0.89900, 1.09000, 0.89900
   64,'19157370300 ',  69.0000,2,   1,   1,   1,1.00999999, -43.510682, 1.09000, 0.89900, 1.09000, 0.89900
   65,'19169000800 ',  69.0000,2,   1,   1,   1,1.00999999, -44.889936, 1.09000, 0.89900, 1.09000, 0.89900
   66,'19059451100 ',  69.0000,2,   1,   1,   1,1.00999999, -19.928883, 1.09000, 0.89900, 1.09000, 0.89900
   67,'19013002303 ',  69.0000,2,   1,   1,   1,1.00961745, -39.083189, 1.09000, 0.89900, 1.09000, 0.89900
   68,'19033950900 ',  69.0000,2,   1,   1,   1,1.00999999, -31.930318, 1.09000, 0.89900, 1.09000, 0.89900
   69,'19135070100 ',  69.0000,2,   1,   1,   1,1.00999999, -35.324447, 1.09000, 0.89900, 1.09000, 0.89900
   70,'19067480500 ', 138.0000,2,   1,   1,   1,1.00000000, -39.766762, 1.09000, 0.89900, 1.09000, 0.89900
   71,'19111490800 ',  69.0000,2,   1,   1,   1,1.00999999, -30.661474, 1.09000, 0.89900, 1.09000, 0.89900
   72,'19033950800 ',  69.0000,2,   1,   1,   1,1.00999999, -32.699824, 1.09000, 0.89900, 1.09000, 0.89900
   73,'19125030200 ',  69.0000,2,   1,   1,   1,1.00364411, -40.386502, 1.09000, 0.89900, 1.09000, 0.89900
   74,'19087970300 ',  69.0000,2,   1,   1,   1,0.98406953, -38.931993, 1.09000, 0.89900, 1.09000, 0.89900
   75,'19041080200 ',  69.0000,2,   1,   1,   1,1.00999999, -28.745708, 1.09000, 0.89900, 1.09000, 0.89900
   76,'19113002200 ',  69.0000,2,   1,   1,   1,1.00643635, -31.481564, 1.09000, 0.89900, 1.09000, 0.89900
   77,'19189680300 ',  69.0000,2,   1,   1,   1,1.00580168, -34.436287, 1.09000, 0.89900, 1.09000, 0.89900
   78,'19079960300 ',  69.0000,2,   1,   1,   1,1.00999999, -43.434372, 1.09000, 0.89900, 1.09000, 0.89900
   79,'19147960400 ',  69.0000,2,   1,   1,   1,1.00749207, -32.813940, 1.09000, 0.89900, 1.09000, 0.89900
   80,'19145490200 ',  69.0000,2,   1,   1,   1,1.00967705, -18.944677, 1.09000, 0.89900, 1.09000, 0.89900
   81,'19189680100 ', 345.0000,2,   1,   1,   1,1.00000000, -35.928844, 1.09000, 0.89900, 1.09000, 0.89900
   82,'17141961700 ',  69.0000,2,   1,   1,   1,1.00999999, -18.042308, 1.09000, 0.89900, 1.09000, 0.89900
   83,'17197884004 ',  69.0000,2,   1,   1,   1,1.00999999,  -2.802798, 1.09000, 0.89900, 1.09000, 0.89900
   84,'17099962500 ',  69.0000,2,   1,   1,   1,1.00999999,  -0.857887, 1.09000, 0.89900, 1.09000, 0.89900
   85,'19045000800 ',  69.0000,2,   1,   1,   1,1.00999999, -19.101613, 1.09000, 0.89900, 1.09000, 0.89900
   86,'17063000700 ',  69.0000,2,   1,   1,   1,1.00999999, -11.030072, 1.09000, 0.89900, 1.09000, 0.89900
   87,'17157950700 ',  69.0000,2,   1,   1,   1,1.00999999,   4.789938, 1.09000, 0.89900, 1.09000, 0.89900
   88,'17179020900 ',  69.0000,2,   1,   1,   1,1.00999999, -13.897570, 1.09000, 0.89900, 1.09000, 0.89900
   89,'17197883307 ',  69.0000,2,   1,   1,   1,1.00999999, -16.939796, 1.09000, 0.89900, 1.09000, 0.89900
   90,'17197882900 ',  69.0000,2,   1,   1,   1,1.00999999, -26.435482, 1.09000, 0.89900, 1.09000, 0.89900
   91,'17021958200 ',  69.0000,2,   1,   1,   1,1.00999999,   3.002136, 1.09000, 0.89900, 1.09000, 0.89900
   92,'17043841604 ',  69.0000,2,   1,   1,   1,1.00999999, -32.930360, 1.09000, 0.89900, 1.09000, 0.89900
   93,'17197880502 ',  69.0000,2,   1,   1,   1,1.00999999, -27.617911, 1.09000, 0.89900, 1.09000, 0.89900
   94,'17197883212 ',  69.0000,2,   1,   1,   1,1.00999999, -27.651572, 1.09000, 0.89900, 1.09000, 0.89900
   95,'17079977500 ',  69.0000,2,   1,   1,   1,1.00999999,   4.549808, 1.09000, 0.89900, 1.09000, 0.89900
   96,'17039971500 ',  69.0000,2,   1,   1,   1,1.00999999,  -9.309336, 1.09000, 0.89900, 1.09000, 0.89900
   97,'17127970200 ',  69.0000,2,   1,   1,   1,1.00999999,   2.671379, 1.09000, 0.89900, 1.09000, 0.89900
   98,'17135958000 ',  69.0000,2,   1,   1,   1,1.00999999,   2.214414, 1.09000, 0.89900, 1.09000, 0.89900
   99,'17103000200 ',  69.0000,2,   1,   1,   1,1.00999999, -22.044055, 1.09000, 0.89900, 1.09000, 0.89900
  100,'17179020800 ',  69.0000,2,   1,   1,   1,1.00999999, -16.973543, 1.09000, 0.89900, 1.09000, 0.89900
  101,'17197883606 ',  69.0000,2,   1,   1,   1,1.00999999, -29.312023, 1.09000, 0.89900, 1.09000, 0.89900
  102,'17049950200 ',  69.0000,2,   1,   1,   1,1.00999999,  -0.975751, 1.09000, 0.89900, 1.09000, 0.89900
  103,'17197883509 ',  69.0000,2,   1,   1,   1,1.00999999, -22.835324, 1.09000, 0.89900, 1.09000, 0.89900
  104,'17147954500 ',  69.0000,2,   1,   1,   1,1.00999999, -14.548366, 1.09000, 0.89900, 1.09000, 0.89900
  105,'17097862200 ',  69.0000,2,   1,   1,   1,1.01659417, -48.322021, 1.09000, 0.89900, 1.09000, 0.89900
  106,'17077010300 ',  69.0000,2,   1,   1,   1,1.00999999,  -0.747988, 1.09000, 0.89900, 1.09000, 0.89900
  107,'17167002500 ',  69.0000,2,   1,   1,   1,1.00999999, -10.974545, 1.09000, 0.89900, 1.09000, 0.89900
  108,'17161020100 ',  69.0000,2,   1,   1,   1,1.00999999, -20.330229, 1.09000, 0.89900, 1.09000, 0.89900
  109,'17031830500 ', 138.0000,2,   1,   1,   1,1.00000000, -40.974254, 1.09000, 0.89900, 1.09000, 0.89900
  110,'17097860101 ',  69.0000,2,   1,   1,   1,1.00999999, -46.444135, 1.09000, 0.89900, 1.09000, 0.89900
  111,'17119400700 ',  69.0000,2,   1,   1,   1,1.00999999,  -2.918310, 1.09000, 0.89900, 1.09000, 0.89900
  112,'17031804507 ',  69.0000,2,   1,   1,   1,1.00999999, -37.307825, 1.09000, 0.89900, 1.09000, 0.89900
  113,'17119402400 ',  69.0000,2,   1,   1,   1,1.00999999,  -3.878884, 1.09000, 0.89900, 1.09000, 0.89900
  114,'17125956500 ',  69.0000,2,   1,   1,   1,1.00999999, -17.275616, 1.09000, 0.89900, 1.09000, 0.89900
  115,'17035972600 ',  69.0000,2,   1,   1,   1,1.00999999,  -2.244511, 1.09000, 0.89900, 1.09000, 0.89900
  116,'17025972000 ',  69.0000,2,   1,   1,   1,1.00999999,  -2.195645, 1.09000, 0.89900, 1.09000, 0.89900
  117,'17057953700 ', 138.0000,2,   1,   1,   1,1.00000000, -18.952211, 1.09000, 0.89900, 1.09000, 0.89900
  118,'17089850400 ',  69.0000,2,   1,   1,   1,1.00999999, -38.330024, 1.09000, 0.89900, 1.09000, 0.89900
  119,'17031520200 ',  69.0000,2,   1,   1,   1,1.01073647, -37.821018, 1.09000, 0.89900, 1.09000, 0.89900
  120,'17145030200 ',  69.0000,2,   1,   1,   1,1.00999999,  -0.226194, 1.09000, 0.89900, 1.09000, 0.89900
  121,'17031310500 ',  69.0000,1,   1,   1,   1,1.01117039, -43.342424, 1.09000, 0.89900, 1.09000, 0.89900
  122,'17197882601 ',  69.0000,2,   1,   1,   1,1.00999999, -27.388524, 1.09000, 0.89900, 1.09000, 0.89900
  123,'17197883811 ',  69.0000,2,   1,   1,   1,1.01535392, -31.029870, 1.09000, 0.89900, 1.09000, 0.89900
  124,'17197883602 ',  69.0000,2,   1,   1,   1,1.00999999, -29.846052, 1.09000, 0.89900, 1.09000, 0.89900
  125,'17115001000 ',  69.0000,2,   1,   1,   1,1.00999999, -18.597161, 1.09000, 0.89900, 1.09000, 0.89900
  126,'17201002200 ',  69.0000,2,   1,   1,   1,1.00999999, -32.427010, 1.09000, 0.89900, 1.09000, 0.89900
  127,'17031838800 ',  69.0000,2,   1,   1,   1,1.01141298, -36.356376, 1.09000, 0.89900, 1.09000, 0.89900
  128,'17011965200 ',  69.0000,2,   1,   1,   1,1.00999999, -23.503118, 1.09000, 0.89900, 1.09000, 0.89900
  129,'17127970100 ',  69.0000,2,   1,   1,   1,1.00999999,   1.379849, 1.09000, 0.89900, 1.09000, 0.89900
  130,'17105960200 ',  69.0000,2,   1,   1,   1,1.00999999, -15.439762, 1.09000, 0.89900, 1.09000, 0.89900
  131,'17031310400 ',  69.0000,1,   1,   1,   1,1.00557327, -43.491581, 1.09000, 0.89900, 1.09000, 0.89900
  132,'17199021400 ', 138.0000,1,   1,   1,   1,0.95581782,  -7.063141, 1.09000, 0.89900, 1.09000, 0.89900
  133,'17121951700 ',  69.0000,2,   1,   1,   1,1.00999999,   1.454796, 1.09000, 0.89900, 1.09000, 0.89900
  134,'17053962000 ',  69.0000,2,   1,   1,   1,1.00999999, -12.601092, 1.09000, 0.89900, 1.09000, 0.89900
  135,'17125956400 ',  69.0000,2,   1,   1,   1,1.00999999, -14.134179, 1.09000, 0.89900, 1.09000, 0.89900
  136,'17037001800 ', 230.0000,2,   1,   1,   1,1.00507534, -30.894377, 1.09000, 0.89900, 1.09000, 0.89900
  137,'17099963700 ',  69.0000,2,   1,   1,   1,1.00999999, -14.303190, 1.09000, 0.89900, 1.09000, 0.89900
  138,'17063000600 ',  69.0000,2,   1,   1,   1,1.00999999,  -7.926358, 1.09000, 0.89900, 1.09000, 0.89900
  139,'17113005101 ',  69.0000,2,   1,   1,   1,1.00999999, -18.659624, 1.09000, 0.89900, 1.09000, 0.89900
  140,'17113001105 ',  69.0000,2,   1,   1,   1,0.99736267, -18.664704, 1.09000, 0.89900, 1.09000, 0.89900
  141,'17183000900 ',  69.0000,2,   1,   1,   1,1.00999999, -21.939534, 1.09000, 0.89900, 1.09000, 0.89900
  142,'17183001300 ',  69.0000,2,   1,   1,   1,1.00999999, -19.101746, 1.09000, 0.89900, 1.09000, 0.89900
  143,'17063000103 ',  69.0000,2,   1,   1,   1,1.00999999, -15.536256, 1.09000, 0.89900, 1.09000, 0.89900
  144,'17201002100 ',  69.0000,2,   1,   1,   1,1.00999999, -32.606264, 1.09000, 0.89900, 1.09000, 0.89900
  145,'17119401500 ',  69.0000,2,   1,   1,   1,1.00999999,  -3.601114, 1.09000, 0.89900, 1.09000, 0.89900
  146,'17199021300 ',  69.0000,2,   1,   1,   1,1.00999999,  -5.965786, 1.09000, 0.89900, 1.09000, 0.89900
  147,'17123961300 ',  69.0000,2,   1,   1,   1,1.00999999, -11.768779, 1.09000, 0.89900, 1.09000, 0.89900
  148,'17167000504 ',  69.0000,2,   1,   1,   1,1.00999999, -12.120162, 1.09000, 0.89900, 1.09000, 0.89900
  149,'17171970700 ',  69.0000,2,   1,   1,   1,1.00999999, -12.910512, 1.09000, 0.89900, 1.09000, 0.89900
  150,'17097861702 ',  69.0000,2,   1,   1,   1,1.00999999, -47.728607, 1.09000, 0.89900, 1.09000, 0.89900
  151,'17105960300 ', 230.0000,2,   1,   1,   1,1.01170015, -22.247999, 1.09000, 0.89900, 1.09000, 0.89900
  152,'17177000300 ',  69.0000,2,   1,   1,   1,1.00999999, -30.964133, 1.09000, 0.89900, 1.09000, 0.89900
  153,'17179022000 ',  69.0000,2,   1,   1,   1,1.00999999, -21.788522, 1.09000, 0.89900, 1.09000, 0.89900
  154,'17119400952 ',  69.0000,2,   1,   1,   1,1.00920796,  -5.665224, 1.09000, 0.89900, 1.09000, 0.89900
  155,'17099961900 ',  69.0000,2,   1,   1,   1,1.00999999, -29.662904, 1.09000, 0.89900, 1.09000, 0.89900
  156,'17119400102 ', 138.0000,2,   1,   1,   1,1.00000000,  -5.459363, 1.09000, 0.89900, 1.09000, 0.89900
  157,'17161024500 ',  69.0000,2,   1,   1,   1,0.99911767, -26.569050, 1.09000, 0.89900, 1.09000, 0.89900
  158,'17011965500 ',  69.0000,2,   1,   1,   1,1.00999999, -12.003899, 1.09000, 0.89900, 1.09000, 0.89900
  159,'17051950500 ',  69.0000,2,   1,   1,   1,1.00999999,  -2.312371, 1.09000, 0.89900, 1.09000, 0.89900
  160,'17099963400 ',  69.0000,2,   1,   1,   1,1.01052725, -21.916723, 1.09000, 0.89900, 1.09000, 0.89900
  161,'17115000200 ',  69.0000,2,   1,   1,   1,1.00999999, -17.957032, 1.09000, 0.89900, 1.09000, 0.89900
  162,'17019000500 ',  69.0000,2,   1,   1,   1,1.00999999, -22.832578, 1.09000, 0.89900, 1.09000, 0.89900
  163,'17011965400 ',  69.0000,2,   1,   1,   1,1.00999999, -26.257935, 1.09000, 0.89900, 1.09000, 0.89900
  164,'17103000900 ',  69.0000,2,   1,   1,   1,1.00999999, -30.703848, 1.09000, 0.89900, 1.09000, 0.89900
  165,'17143000500 ',  69.0000,2,   1,   1,   1,0.99326456, -22.611700, 1.09000, 0.89900, 1.09000, 0.89900
  166,'17031820400 ',  69.0000,2,   1,   1,   1,1.00999999, -41.988038, 1.09000, 0.89900, 1.09000, 0.89900
  167,'17011965000 ',  69.0000,2,   1,   1,   1,1.00999999, -23.479187, 1.09000, 0.89900, 1.09000, 0.89900
  168,'17119400600 ',  69.0000,2,   1,   1,   1,1.00999999,  -2.898978, 1.09000, 0.89900, 1.09000, 0.89900
  169,'17031833300 ',  69.0000,2,   1,   1,   1,1.01125491, -43.761463, 1.09000, 0.89900, 1.09000, 0.89900
  170,'17019010100 ',  69.0000,2,   1,   1,   1,1.00999999, -21.164567, 1.09000, 0.89900, 1.09000, 0.89900
  171,'17099963300 ',  69.0000,2,   1,   1,   1,1.00999999, -22.915344, 1.09000, 0.89900, 1.09000, 0.89900
  172,'17089852500 ', 138.0000,2,   1,   1,   1,0.99983829, -36.509496, 1.09000, 0.89900, 1.09000, 0.89900
  173,'17167000503 ',  69.0000,2,   1,   1,   1,1.00999999, -12.553853, 1.09000, 0.89900, 1.09000, 0.89900
  174,'17019000402 ',  69.0000,2,   1,   1,   1,1.00999999, -22.897861, 1.09000, 0.89900, 1.09000, 0.89900
  175,'17073030300 ', 138.0000,2,   1,   1,   1,1.00000000, -25.674572, 1.09000, 0.89900, 1.09000, 0.89900
  176,'17149952800 ',  69.0000,2,   1,   1,   1,1.01030171, -12.646012, 1.09000, 0.89900, 1.09000, 0.89900
  177,'17031283800 ',  69.0000,2,   1,   1,   1,1.00648940, -43.653283, 1.09000, 0.89900, 1.09000, 0.89900
  178,'17043841320 ',  69.0000,2,   1,   1,   1,0.99944395, -39.109953, 1.09000, 0.89900, 1.09000, 0.89900
  179,'27141030404 ',  69.0000,2,   1,   1,   1,1.00999999, -32.051752, 1.09000, 0.89900, 1.09000, 0.89900
  180,'27049080200 ',  69.0000,2,   1,   1,   1,1.00999999, -34.889870, 1.09000, 0.89900, 1.09000, 0.89900
  181,'27061480900 ',  69.0000,2,   1,   1,   1,1.00999999, -45.890211, 1.09000, 0.89900, 1.09000, 0.89900
  182,'27171100203 ',  69.0000,2,   1,   1,   1,1.00999999, -30.997000, 1.09000, 0.89900, 1.09000, 0.89900
  183,'27123036000 ',  69.0000,2,   1,   1,   1,1.00999999, -50.209527, 1.09000, 0.89900, 1.09000, 0.89900
  184,'27163070801 ',  69.0000,2,   1,   1,   1,1.00999999, -45.872732, 1.09000, 0.89900, 1.09000, 0.89900
  185,'27053100500 ',  69.0000,1,   1,   1,   1,0.98283231, -54.399971, 1.09000, 0.89900, 1.09000, 0.89900
  186,'27165950300 ',  69.0000,2,   1,   1,   1,1.00999999, -36.688443, 1.09000, 0.89900, 1.09000, 0.89900
  187,'27103480600 ',  69.0000,2,   1,   1,   1,1.00999999, -40.443476, 1.09000, 0.89900, 1.09000, 0.89900
  188,'27099001200 ',  69.0000,2,   1,   1,   1,1.00999999, -41.466727, 1.09000, 0.89900, 1.09000, 0.89900
  189,'27049080600 ',  69.0000,2,   1,   1,   1,1.00999999, -43.465343, 1.09000, 0.89900, 1.09000, 0.89900
  190,'27131070901 ',  69.0000,2,   1,   1,   1,1.00999999, -43.152319, 1.09000, 0.89900, 1.09000, 0.89900
  191,'27139080301 ',  69.0000,2,   1,   1,   1,1.00999999, -47.585177, 1.09000, 0.89900, 1.09000, 0.89900
  192,'27053025301 ',  69.0000,2,   1,   1,   1,1.00999999, -47.940545, 1.09000, 0.89900, 1.09000, 0.89900
  193,'27163071209 ',  69.0000,2,   1,   1,   1,1.00999999, -47.322911, 1.09000, 0.89900, 1.09000, 0.89900
  194,'27037060508 ',  69.0000,2,   1,   1,   1,1.00999999, -45.314269, 1.09000, 0.89900, 1.09000, 0.89900
  195,'27037060748 ',  69.0000,2,   1,   1,   1,0.99508947, -48.755806, 1.09000, 0.89900, 1.09000, 0.89900
  196,'27075370100 ',  69.0000,2,   1,   1,   1,1.00999999, -50.949257, 1.09000, 0.89900, 1.09000, 0.89900
  197,'27053026018 ',  69.0000,2,   1,   1,   1,1.00999999, -49.448176, 1.09000, 0.89900, 1.09000, 0.89900
  198,'27101900200 ',  69.0000,2,   1,   1,   1,1.00999999, -24.069032, 1.09000, 0.89900, 1.09000, 0.89900
  199,'27105105100 ',  69.0000,2,   1,   1,   1,1.00999999, -21.407886, 1.09000, 0.89900, 1.09000, 0.89900
  200,'27141030503 ',  69.0000,2,   1,   1,   1,1.00999999, -42.213711, 1.09000, 0.89900, 1.09000, 0.89900
...
0 / END OF BUS DATA, BEGIN LOAD DATA
    1,'1 ',1,   1,   1,    14.530,     3.990,     0.000,     0.000,     0.000,     0.000,   1,1, 0
    2,'1 ',1,   1,   1,    47.460,     4.380,     0.000,     0.000,     0.000,     0.000,   1,1, 0
    3,'1 ',1,   1,   1,     2.570,     0.910,     0.000,     0.000,     0.000,     0.000,   1,1, 0
    4,'1 ',1,   1,   1,     2.060,     0.820,     0.000,     0.000,     0.000,     0.000,   1,1, 0
    5,'1 ',1,   1,   1,     8.250,     2.130,     0.000,     0.000,     0.000,     0.000,   1,1, 0
    6,'1 ',1,   1,   1,     5.030,     2.050,     0.000,     0.000,     0.000,     0.000,   1,1, 0
    7,'1 ',1,   1,   1,     9.690,     2.500,     0.000,     0.000,     0.000,     0.000,   1,1, 0
    8,'1 ',1,   1,   1,     3.430,     1.400,     0.000,     0.000,     0.000,     0.000,   1,1, 0
    9,'1 ',1,   1,   1,     2.720,     0.910,     0.000,     0.000,     0.000,     0.000,   1,1, 0
   10,'1 ',1,   1,   1,     5.350,     1.600,     0.000,     0.000,     0.000,     0.000,   1,1, 0
   11,'1 ',1,   1,   1,    26.300,     5.240,     0.000,     0.000,     0.000,     0.000,   1,1, 0
   12,'1 ',1,   1,   1,     2.540,     0.930,     0.000,     0.000,     0.000,     0.000,   1,1, 0
   13,'1 ',1,   1,   1,     3.820,     1.050,     0.000,     0.000,     0.000,     0.000,   1,1, 0
   14,'1 ',1,   1,   1,    10.040,     3.030,     0.000,     0.000,     0.000,     0.000,   1,1, 0
   15,'1 ',1,   1,   1,    77.060,     9.840,     0.000,     0.000,     0.000,     0.000,   1,1, 0
   16,'1 ',1,   1,   1,     1.470,     0.460,     0.000,     0.000,     0.000,     0.000,   1,1, 0
   17,'1 ',1,   1,   1,    37.120,     7.800,     0.000,     0.000,     0.000,     0.000,   1,1, 0
   18,'1 ',1,   1,   1,     4.970,     1.200,     0.000,     0.000,     0.000,     0.000,   1,1, 0
   19,'1 ',1,   1,   1,   100.000,    90.000,     0.000,     0.000,     0.000,     0.000,   1,1, 0
   20,'1 ',1,   1,   1,    22.290,     3.270,     0.000,     0.000,     0.000,     0.000,   1,1, 0
   21,'1 ',1,   1,   1,    14.570,     3.240,     0.000,     0.000,     0.000,     0.000,   1,1, 0
   22,'1 ',1,   1,   1,     5.180,     1.680,     0.000,     0.000,     0.000,     0.000,   1,1, 0
   23,'1 ',1,   1,   1,     1.400,     0.460,     0.000,     0.000,     0.000,     0.000,   1,1, 0
   24,'1 ',1,   1,   1,     3.260,     1.340,     0.000,     0.000,     0.000,     0.000,   1,1, 0
   25,'1 ',1,   1,   1,    11.040,     2.520,     0.000,     0.000,     0.000,     0.000,   1,1, 0
   26,'1 ',1,   1,   1,     4.820,     1.530,     0.000,     0.000,     0.000,     0.000,   1,1, 0
   27,'1 ',1,   1,   1,     9.460,     1.800,     0.000,     0.000,     0.000,     0.000,   1,1, 0
   28,'1 ',1,   1,   1,     9.500,     2.150,     0.000,     0.000,     0.000,     0.000,   1,1, 0
   29,'1 ',1,   1,   1,     3.460,     1.100,     0.000,     0.000,     0.000,     0.000,   1,1, 0
   30,'1 ',1,   1,   1,     5.050,     1.820,     0.000,     0.000,     0.000,     0.000,   1,1, 0
   31,'1 ',1,   1,   1,     7.810,     7.000,     0.000,     0.000,     0.000,     0.000,   1,1, 0
   32,'1 ',1,   1,   1,     3.070,     1.100,     0.000,     0.000,     0.000,     0.000,   1,1, 0
   33,'1 ',1,   1,   1,     1.910,     0.610,     0.000,     0.000,     0.000,     0.000,   1,1, 0
   34,'1 ',1,   1,   1,    43.680,     8.430,     0.000,     0.000,     0.000,     0.000,   1,1, 0
   35,'1 ',1,   1,   1,    38.990,     9.290,     0.000,     0.000,     0.000,     0.000,   1,1, 0
   36,'1 ',1,   1,   1,     1.720,     0.690,     0.000,     0.000,     0.000,     0.000,   1,1, 0
   37,'1 ',1,   1,   1,    13.250,     2.140,     0.000,     0.000,     0.000,     0.000,   1,1, 0
   38,'1 ',1,   1,   1,     6.950,     1.790,     0.000,     0.000,     0.000,     0.000,   1,1, 0
   39,'1 ',1,   1,   1,     7.970,     1.870,     0.000,     0.000,     0.000,     0.000,   1,1, 0
   40,'1 ',1,   1,   1,     6.400,     1.840,     0.000,     0.000,     0.000,     0.000,   1,1, 0
   41,'1 ',1,   1,   1,     7.610,     1.700,     0.000,     0.000,     0.000,     0.000,   1,1, 0
   42,'1 ',1,   1,   1,     7.770,     1.580,     0.000,     0.000,     0.000,     0.000,   1,1, 0
   43,'1 ',1,   1,   1,     1.320,     0.540,     0.000,     0.000,     0.000,     0.000,   1,1, 0
   44,'1 ',1,   1,   1,    10.140,     2.500,     0.000,     0.000,     0.000,     0.000,   1,1, 0
   45,'1 ',1,   1,   1,     6.190,     1.830,     0.000,     0.000,     0.000,     0.000,   1,1, 0
   46,'1 ',1,   1,   1,     3.420,     1.010,     0.000,     0.000,     0.000,     0.000,   1,1, 0
   47,'1 ',1,   1,   1,    17.370,     4.330,     0.000,     0.000,     0.000,     0.000,   1,1, 0
   48,'1 ',1,   1,   1,    10.920,     2.800,     0.000,     0.000,     0.000,     0.000,   1,1, 0
   49,'1 ',1,   1,   1,     2.460,     0.580,     0.000,     0.000,     0.000,     0.000,   1,1, 0
   50,'1 ',1,   1,   1,     8.250,     2.360,     0.000,     0.000,     0.000,     0.000,   1,1, 0
   51,'1 ',1,   1,   1,     9.940,     2.110,     0.000,     0.000,     0.000,     0.000,   1,1, 0
   52,'1 ',1,   1,   1,     2.520,     1.030,     0.000,     0.000,     0.000,     0.000,   1,1, 0
   53,'1 ',1,   1,   1,    13.900,     2.600,     0.000,     0.000,     0.000,     0.000,   1,1, 0
   54,'1 ',1,   1,   1,    23.350,     5.790,     0.000,     0.000,     0.000,     0.000,   1,1, 0
   55,'1 ',1,   1,   1,     3.710,     1.060,     0.000,     0.000,     0.000,     0.000,   1,1, 0
   56,'1 ',1,   1,   1,     7.730,     2.390,     0.000,     0.000,     0.000,     0.000,   1,1, 0
   57,'1 ',1,   1,   1,    38.220,     7.760,     0.000,     0.000,     0.000,     0.000,   1,1, 0
   58,'1 ',1,   1,   1,     3.470,     1.030,     0.000,     0.000,     0.000,     0.000,   1,1, 0
   59,'1 ',1,   1,   1,    10.240,     3.290,     0.000,     0.000,     0.000,     0.000,   1,1, 0
   60,'1 ',1,   1,   1,     5.550,     1.640,     0.000,     0.000,     0.000,     0.000,   1,1, 0
   61,'1 ',1,   1,   1,     4.000,     1.190,     0.000,     0.000,     0.000,     0.000,   1,1, 0
   62,'1 ',1,   1,   1,     1.470,     0.550,     0.000,     0.000,     0.000,     0.000,   1,1, 0
   63,'1 ',1,   1,   1,    15.440,     2.410,     0.000,     0.000,     0.000,     0.000,   1,1, 0
   64,'1 ',1,   1,   1,     4.400,     1.340,     0.000,     0.000,     0.000,     0.000,   1,1, 0
   65,'1 ',1,   1,   1,    11.100,     3.640,     0.000,     0.000,     0.000,     0.000,   1,1, 0
   66,'1 ',1,   1,   1,     3.770,     1.110,     0.000,     0.000,     0.000,     0.000,   1,1, 0
   67,'1 ',1,   1,   1,     3.090,     1.320,     0.000,     0.000,     0.000,     0.000,   1,1, 0
   68,'1 ',1,   1,   1,     1.670,     0.540,     0.000,     0.000,     0.000,     0.000,   1,1, 0
   69,'1 ',1,   1,   1,    52.190,    10.520,     0.000,     0.000,     0.000,     0.000,   1,1, 0
   70,'1 ',1,   1,   1,    38.400,     4.130,     0.000,     0.000,     0.000,     0.000,   1,1, 0
   71,'1 ',1,   1,   1,    28.570,     3.470,     0.000,     0.000,     0.000,     0.000,   1,1, 0
   72,'1 ',1,   1,   1,     3.970,     1.280,     0.000,     0.000,     0.000,     0.000,   1,1, 0
   73,'1 ',1,   1,   1,    16.420,     4.180,     0.000,     0.000,     0.000,     0.000,   1,1, 0
   74,'1 ',1,   1,   1,    12.830,     2.540,     0.000,     0.000,     0.000,     0.000,   1,1, 0
   75,'1 ',1,   1,   1,     6.140,     1.960,     0.000,     0.000,     0.000,     0.000,   1,1, 0
   76,'1 ',1,   1,   1,     6.350,     1.630,     0.000,     0.000,     0.000,     0.000,   1,1, 0
   77,'1 ',1,   1,   1,    13.970,     3.230,     0.000,     0.000,     0.000,     0.000,   1,1, 0
   78,'1 ',1,   1,   1,     8.560,     1.410,     0.000,     0.000,     0.000,     0.000,   1,1, 0
   79,'1 ',1,   1,   1,     1.950,     0.730,     0.000,     0.000,     0.000,     0.000,   1,1, 0
   80,'1 ',1,   1,   1,     6.480,     1.630,     0.000,     0.000,     0.000,     0.000,   1,1, 0
   81,'1 ',1,   1,   1,    13.630,    12.000,     0.000,     0.000,     0.000,     0.000,   1,1, 0
   82,'1 ',1,   1,   1,     9.400,     2.030,     0.000,     0.000,     0.000,     0.000,   1,1, 0
   83,'1 ',1,   1,   1,     3.240,     0.890,     0.000,     0.000,     0.000,     0.000,   1,1, 0
   84,'1 ',1,   1,   1,     6.330,     1.490,     0.000,     0.000,     0.000,     0.000,   1,1, 0
   85,'1 ',1,   1,   1,    60.300,    11.990,     0.000,     0.000,     0.000,     0.000,   1,1, 0
   86,'1 ',1,   1,   1,    19.620,     3.860,     0.000,     0.000,     0.000,     0.000,   1,1, 0
   87,'1 ',1,   1,   1,     5.600,     1.500,     0.000,     0.000,     0.000,     0.000,   1,1, 0
   88,'1 ',1,   1,   1,    27.600,     3.550,     0.000,     0.000,     0.000,     0.000,   1,1, 0
   89,'1 ',1,   1,   1,     9.820,     2.570,     0.000,     0.000,     0.000,     0.000,   1,1, 0
   90,'1 ',1,   1,   1,    29.780,     5.340,     0.000,     0.000,     0.000,     0.000,   1,1, 0
   91,'1 ',1,   1,   1,    10.090,     2.650,     0.000,     0.000,     0.000,     0.000,   1,1, 0
   92,'1 ',1,   1,   1,     3.270,     1.250,     0.000,     0.000,     0.000,     0.000,   1,1, 0
   93,'1 ',1,   1,   1,    16.440,     5.330,     0.000,     0.000,     0.000,     0.000,   1,1, 0
   94,'1 ',1,   1,   1,     3.370,     1.360,     0.000,     0.000,     0.000,     0.000,   1,1, 0
   95,'1 ',1,   1,   1,    19.180,     5.650,     0.000,     0.000,     0.000,     0.000,   1,1, 0
   96,'1 ',1,   1,   1,    18.480,     3.850,     0.000,     0.000,     0.000,     0.000,   1,1, 0
   97,'1 ',1,   1,   1,     5.090,     1.820,     0.000,     0.000,     0.000,     0.000,   1,1, 0
   98,'1 ',1,   1,   1,     8.090,     2.400,     0.000,     0.000,     0.000,     0.000,   1,1, 0
   99,'1 ',1,   1,   1,    12.880,     2.750,     0.000,     0.000,     0.000,     0.000,   1,1, 0
  100,'1 ',1,   1,   1,     7.090,     1.980,     0.000,     0.000,     0.000,     0.000,   1,1, 0
  101,'1 ',1,   1,   1,     7.790,     1.840,     0.000,     0.000,     0.000,     0.000,   1,1, 0
  102,'1 ',1,   1,   1,     6.830,     2.160,     0.000,     0.000,     0.000,     0.000,   1,1, 0
  103,'1 ',1,   1,   1,     8.920,     2.790,     0.000,     0.000,     0.000,     0.000,   1,1, 0
  104,'1 ',1,   1,   1,    12.170,     2.930,     0.000,     0.000,     0.000,     0.000,   1,1, 0
  105,'1 ',1,   1,   1,    18.830,     3.320,     0.000,     0.000,     0.000,     0.000,   1,1, 0
  106,'1 ',1,   1,   1,     7.700,     2.150,     0.000,     0.000,     0.000,     0.000,   1,1, 0
  107,'1 ',1,   1,   1,     5.420,     1.710,     0.000,     0.000,     0.000,     0.000,   1,1, 0
  108,'1 ',1,   1,   1,    47.030,     6.920,     0.000,     0.000,     0.000,     0.000,   1,1, 0
  109,'1 ',1,   1,   1,    23.900,     6.090,     0.000,     0.000,     0.000,     0.000,   1,1, 0
  110,'1 ',1,   1,   1,    25.130,     6.540,     0.000,     0.000,     0.000,     0.000,   1,1, 0
  111,'1 ',1,   1,   1,    11.100,     2.040,     0.000,     0.000,     0.000,     0.000,   1,1, 0
  112,'1 ',1,   1,   1,    36.080,     8.810,     0.000,     0.000,     0.000,     0.000,   1,1, 0
  113,'1 ',1,   1,   1,     5.430,     1.480,     0.000,     0.000,     0.000,     0.000,   1,1, 0
  114,'1 ',1,   1,   1,    18.840,     5.530,     0.000,     0.000,     0.000,     0.000,   1,1, 0
  115,'1 ',1,   1,   1,     8.380,     2.130,     0.000,     0.000,     0.000,     0.000,   1,1, 0
  116,'1 ',1,   1,   1,    10.080,     3.120,     0.000,     0.000,     0.000,     0.000,   1,1, 0
  117,'1 ',1,   1,   1,     8.530,     1.810,     0.000,     0.000,     0.000,     0.000,   1,1, 0
  118,'1 ',1,   1,   1,    10.020,     2.880,     0.000,     0.000,     0.000,     0.000,   1,1, 0
  119,'1 ',1,   1,   1,     4.740,     1.570,     0.000,     0.000,     0.000,     0.000,   1,1, 0
  120,'1 ',1,   1,   1,    15.050,     4.400,     0.000,     0.000,     0.000,     0.000,   1,1, 0
  121,'1 ',1,   1,   1,     1.210,     0.000,     0.000,     0.000,     0.000,     0.000,   1,1, 0
  122,'1 ',1,   1,   1,     1.880,     0.830,     0.000,     0.000,     0.000,     0.000,   1,1, 0
  123,'1 ',1,   1,   1,     3.070,     0.960,     0.000,     0.000,     0.000,     0.000,   1,1, 0
  124,'1 ',1,   1,   1,    36.180,     9.640,     0.000,     0.000,     0.000,     0.000,   1,1, 0
  125,'1 ',1,   1,   1,     7.070,     0.890,     0.000,     0.000,     0.000,     0.000,   1,1, 0
  126,'1 ',1,   1,   1,    13.210,     2.350,     0.000,     0.000,     0.000,     0.000,   1,1, 0
  127,'1 ',1,   1,   1,   106.230,     0.000,     0.000,     0.000,     0.000,     0.000,   1,1, 0
  128,'1 ',1,   1,   1,    10.590,     2.630,     0.000,     0.000,     0.000,     0.000,   1,1, 0
  129,'1 ',1,   1,   1,    25.830,     3.460,     0.000,     0.000,     0.000,     0.000,   1,1, 0
  130,'1 ',1,   1,   1,    25.850,     6.740,     0.000,     0.000,     0.000,     0.000,   1,1, 0
  131,'1 ',1,   1,   1,     1.440,     0.000,     0.000,     0.000,     0.000,     0.000,   1,1, 0
  132,'1 ',1,   1,   1,    22.250,     3.750,     0.000,     0.000,     0.000,     0.000,   1,1, 0
  133,'1 ',1,   1,   1,    29.540,     9.040,     0.000,     0.000,     0.000,     0.000,   1,1, 0
  134,'1 ',1,   1,   1,    16.630,     3.570,     0.000,     0.000,     0.000,     0.000,   1,1, 0
  135,'1 ',1,   1,   1,     5.010,     1.510,     0.000,     0.000,     0.000,     0.000,   1,1, 0
  136,'1 ',1,   1,   1,    14.000,     3.440,     0.000,     0.000,     0.000,     0.000,   1,1, 0
  137,'1 ',1,   1,   1,    20.830,     5.430,     0.000,     0.000,     0.000,     0.000,   1,1, 0
  138,'1 ',1,   1,   1,    10.480,     2.560,     0.000,     0.000,     0.000,     0.000,   1,1, 0
  139,'1 ',1,   1,   1,     6.000,     2.050,     0.000,     0.000,     0.000,     0.000,   1,1, 0
  140,'1 ',1,   1,   1,     3.390,     1.320,     0.000,     0.000,     0.000,     0.000,   1,1, 0
  141,'1 ',1,   1,   1,    10.070,     2.570,     0.000,     0.000,     0.000,     0.000,   1,1, 0
  142,'1 ',1,   1,   1,     5.220,     1.460,     0.000,     0.000,     0.000,     0.000,   1,1, 0
  143,'1 ',1,   1,   1,    35.850,     7.690,     0.000,     0.000,     0.000,     0.000,   1,1, 0
  144,'1 ',1,   1,   1,    29.190,     6.460,     0.000,     0.000,     0.000,     0.000,   1,1, 0
  145,'1 ',1,   1,   1,    15.200,     3.520,     0.000,     0.000,     0.000,     0.000,   1,1, 0
  146,'1 ',1,   1,   1,     5.920,     1.730,     0.000,     0.000,     0.000,     0.000,   1,1, 0
  147,'1 ',1,   1,   1,     6.830,     2.000,     0.000,     0.000,     0.000,     0.000,   1,1, 0
  148,'1 ',1,   1,   1,     1.950,     0.710,     0.000,     0.000,     0.000,     0.000,   1,1, 0
  149,'1 ',1,   1,   1,     5.830,     2.020,     0.000,     0.000,     0.000,     0.000,   1,1, 0
  150,'1 ',1,   1,   1,     4.670,     1.440,     0.000,     0.000,     0.000,     0.000,   1,1, 0
  151,'1 ',1,   1,   1,    20.140,     3.860,     0.000,     0.000,     0.000,     0.000,   1,1, 0
  152,'1 ',1,   1,   1,     7.390,     2.370,     0.000,     0.000,     0.000,     0.000,   1,1, 0
  153,'1 ',1,   1,   1,    19.350,     5.270,     0.000,     0.000,     0.000,     0.000,   1,1, 0
  154,'1 ',1,   1,   1,     5.510,     1.570,     0.000,     0.000,     0.000,     0.000,   1,1, 0
  155,'1 ',1,   1,   1,    13.360,     3.220,     0.000,     0.000,     0.000,     0.000,   1,1, 0
  156,'1 ',1,   1,   1,     4.890,     1.640,     0.000,     0.000,     0.000,     0.000,   1,1, 0
  157,'1 ',1,   1,   1,    61.030,    12.530,     0.000,     0.000,     0.000,     0.000,   1,1, 0
  158,'1 ',1,   1,   1,     4.170,     1.310,     0.000,     0.000,     0.000,     0.000,   1,1, 0
  159,'1 ',1,   1,   1,    18.040,     5.200,     0.000,     0.000,     0.000,     0.000,   1,1, 0
  160,'1 ',1,   1,   1,     7.840,     2.000,     0.000,     0.000,     0.000,     0.000,   1,1, 0
  161,'1 ',1,   1,   1,     2.830,     0.930,     0.000,     0.000,     0.000,     0.000,   1,1, 0
  162,'1 ',1,   1,   1,     3.370,     1.210,     0.000,     0.000,     0.000,     0.000,   1,1, 0
  163,'1 ',1,   1,   1,     6.270,     1.750,     0.000,     0.000,     0.000,     0.000,   1,1, 0
  164,'1 ',1,   1,   1,    12.880,     4.030,     0.000,     0.000,     0.000,     0.000,   1,1, 0
  165,'1 ',1,   1,   1,    26.180,     3.050,     0.000,     0.000,     0.000,     0.000,   1,1, 0
  166,'1 ',1,   1,   1,    21.150,     0.000,     0.000,     0.000,     0.000,     0.000,   1,1, 0
  167,'1 ',1,   1,   1,    10.560,     2.100,     0.000,     0.000,     0.000,     0.000,   1,1, 0
  168,'1 ',1,   1,   1,    10.800,     3.490,     0.000,     0.000,     0.000,     0.000,   1,1, 0
  169,'1 ',1,   1,   1,     6.210,     0.000,     0.000,     0.000,     0.000,     0.000,   1,1, 0
  170,'1 ',1,   1,   1,     3.770,     1.360,     0.000,     0.000,     0.000,     0.000,   1,1, 0
  171,'1 ',1,   1,   1,     3.060,     0.980,     0.000,     0.000,     0.000,     0.000,   1,1, 0
  172,'1 ',1,   1,   1,    35.750,     8.040,     0.000,     0.000,     0.000,     0.000,   1,1, 0
  173,'1 ',1,   1,   1,     3.870,     1.290,     0.000,     0.000,     0.000,     0.000,   1,1, 0
  174,'1 ',1,   1,   1,     2.390,     0.980,     0.000,     0.000,     0.000,     0.000,   1,1, 0
  175,'1 ',1,   1,   1,    17.390,     5.080,     0.000,     0.000,     0.000,     0.000,   1,1, 0
  176,'1 ',1,   1,   1,     6.070,     1.740,     0.000,     0.000,     0.000,     0.000,   1,1, 0
  177,'1 ',1,   1,   1,     3.810,     0.000,     0.000,     0.000,     0.000,     0.000,   1,1, 0
  178,'1 ',1,   1,   1,     1.650,     0.560,     0.000,     0.000,     0.000,     0.000,   1,1, 0
  179,'1 ',1,   1,   1,    11.640,     3.360,     0.000,     0.000,     0.000,     0.000,   1,1, 0
  180,'1 ',1,   1,   1,    34.420,     7.950,     0.000,     0.000,     0.000,     0.000,   1,1, 0
  181,'1 ',1,   1,   1,    12.670,     3.970,     0.000,     0.000,     0.000,     0.000,   1,1, 0
  182,'1 ',1,   1,   1,     7.650,     1.940,     0.000,     0.000,     0.000,     0.000,   1,1, 0
  183,'1 ',1,   1,   1,     3.560,     1.070,     0.000,     0.000,     0.000,     0.000,   1,1, 0
  184,'1 ',1,   1,   1,     1.670,     0.530,     0.000,     0.000,     0.000,     0.000,   1,1, 0
  185,'1 ',1,   1,   1,    14.550,     2.910,     0.000,     0.000,     0.000,     0.000,   1,1, 0
  186,'1 ',1,   1,   1,     5.050,     1.730,     0.000,     0.000,     0.000,     0.000,   1,1, 0
  187,'1 ',1,   1,   1,     5.370,     1.690,     0.000,     0.000,     0.000,     0.000,   1,1, 0
  188,'1 ',1,   1,   1,     2.870,     0.710,     0.000,     0.000,     0.000,     0.000,   1,1, 0
  189,'1 ',1,   1,   1,    13.400,     2.350,     0.000,     0.000,     0.000,     0.000,   1,1, 0
  190,'1 ',1,   1,   1,    20.690,     4.290,     0.000,     0.000,     0.000,     0.000,   1,1, 0
  191,'1 ',1,   1,   1,    56.370,    14.280,     0.000,     0.000,     0.000,     0.000,   1,1, 0
  192,'1 ',1,   1,   1,     2.410,     0.740,     0.000,     0.000,     0.000,     0.000,   1,1, 0
  193,'1 ',1,   1,   1,     5.480,     1.890,     0.000,     0.000,     0.000,     0.000,   1,1, 0
  194,'1 ',1,   1,   1,    10.690,     3.130,     0.000,     0.000,     0.000,     0.000,   1,1, 0
  195,'1 ',1,   1,   1,    10.840,     2.780,     0.000,     0.000,     0.000,     0.000,   1,1, 0
  196,'1 ',1,   1,   1,     4.610,     1.550,     0.000,     0.000,     0.000,     0.000,   1,1, 0
  197,'1 ',1,   1,   1,     6.510,     1.960,     0.000,     0.000,     0.000,     0.000,   1,1, 0
  198,'1 ',1,   1,   1,     3.470,     1.250,     0.000,     0.000,     0.000,     0.000,   1,1, 0
  199,'1 ',1,   1,   1,    11.500,     2.650,     0.000,     0.000,     0.000,     0.000,   1,1, 0
  200,'1 ',1,   1,   1,    10.030,     3.090,     0.000,     0.000,     0.000,     0.000,   1,1, 0
...
0 / END OF LOAD DATA, BEGIN FIXED SHUNT DATA
0 / END OF FIXED SHUNT DATA, BEGIN GENERATOR DATA
    1,'1 ',   444.685,    -9.566,   220.000,  -215.500,1.01000,    0,   100.000,   0.00000,   1.00000,   0.00000,   0.00000,1.00000,1,  100.0,   444.720,   195.000,   1,1.0000,   0,1.0000,   0,1.0000,   0,1.0000,0,1.0000
    1,'2 ',   444.685,    -9.566,   220.000,  -215.500,1.01000,    0,   100.000,   0.00000,   1.00000,   0.00000,   0.00000,1.00000,1,  100.0,   444.720,   195.000,   1,1.0000,   0,1.0000,   0,1.0000,   0,1.0000,0,1.0000
    1,'3 ',   444.685,    -9.566,   220.000,  -215.500,1.01000,    0,   100.000,   0.00000,   1.00000,   0.00000,   0.00000,1.00000,1,  100.0,   444.720,   195.000,   1,1.0000,   0,1.0000,   0,1.0000,   0,1.0000,0,1.0000
    1,'4 ',   444.685,    -9.566,   220.000,  -215.500,1.01000,    0,   100.000,   0.00000,   1.00000,   0.00000,   0.00000,1.00000,1,  100.0,   444.720,   195.000,   1,1.0000,   0,1.0000,   0,1.0000,   0,1.0000,0,1.0000
    2,'1 ',   225.040,   -26.184,   181.330,  -180.000,1.00000,    0,   100.000,   0.00000,   1.00000,   0.00000,   0.00000,1.00000,1,   67.0,   360.100,   135.000,   1,1.0000,   0,1.0000,   0,1.0000,   0,1.0000,0,1.0000
    2,'2 ',   225.040,   -26.184,   181.330,  -180.000,1.00000,    0,   100.000,   0.00000,   1.00000,   0.00000,   0.00000,1.00000,1,   67.0,   360.100,   135.000,   1,1.0000,   0,1.0000,   0,1.0000,   0,1.0000,0,1.0000
    2,'3 ',   225.040,   -26.184,   181.330,  -180.000,1.00000,    0,   100.000,   0.00000,   1.00000,   0.00000,   0.00000,1.00000,1,   67.0,   360.100,   135.000,   1,1.0000,   0,1.0000,   0,1.0000,   0,1.0000,0,1.0000
    3,'1 ',   489.760,  -104.784,   393.000,  -393.000,1.01000,    0,   100.000,   0.00000,   1.00000,   0.00000,   0.00000,1.00000,1,   76.6,   811.900,   275.000,   1,1.0000,   0,1.0000,   0,1.0000,   0,1.0000,0,1.0000
    4,'1 ',   220.000,    50.483,   352.000,  -352.000,1.01000,    0,   100.000,   0.00000,   1.00000,   0.00000,   0.00000,1.00000,1,   94.0,   725.900,   220.000,   1,1.0000,   0,1.0000,   0,1.0000,   0,1.0000,0,1.0000
    5,'1 ',   339.180,    55.326,   337.000,  -337.000,1.01000,    0,   100.000,   0.00000,   1.00000,   0.00000,   0.00000,1.00000,1,  100.0,   695.900,   250.000,   1,1.0000,   0,1.0000,   0,1.0000,   0,1.0000,0,1.0000
    6,'1 ',   350.000,   -19.624,   300.000,  -223.000,1.01000,    0,   100.000,   0.00000,   1.00000,   0.00000,   0.00000,1.00000,1,  100.0,   350.000,    60.000,   1,1.0000,   0,1.0000,   0,1.0000,   0,1.0000,0,1.0000
    7,'1 ',   253.000,     8.928,   374.000,  -292.000,1.01000,    0,   100.000,   0.00000,   1.00000,   0.00000,   0.00000,1.00000,1,  100.0,   602.800,   253.000,   1,1.0000,   0,1.0000,   0,1.0000,   0,1.0000,0,1.0000
    8,'1 ',   295.000,     5.703,   357.000,  -279.000,1.01000,    0,   100.000,   0.00000,   1.00000,   0.00000,   0.00000,1.00000,1,   85.7,   576.300,   295.000,   1,1.0000,   0,1.0000,   0,1.0000,   0,1.0000,0,1.0000
    9,'1 ',    93.864,    12.724,    54.670,   -52.330,1.01000,    0,   100.000,   0.00000,   1.00000,   0.00000,   0.00000,1.00000,1,  100.0,   107.830,    38.000,   1,1.0000,   0,1.0000,   0,1.0000,   0,1.0000,0,1.0000
    9,'2 ',    93.864,    12.724,    54.670,   -52.330,1.01000,    0,   100.000,   0.00000,   1.00000,   0.00000,   0.00000,1.00000,1,  100.0,   107.830,    38.000,   1,1.0000,   0,1.0000,   0,1.0000,   0,1.0000,0,1.0000
    9,'3 ',    93.864,    12.724,    54.670,   -52.330,1.01000,    0,   100.000,   0.00000,   1.00000,   0.00000,   0.00000,1.00000,1,  100.0,   107.830,    38.000,   1,1.0000,   0,1.0000,   0,1.0000,   0,1.0000,0,1.0000
   10,'1 ',     9.000,     6.040,   145.000,  -145.000,1.01000,    0,   100.000,   0.00000,   1.00000,   0.00000,   0.00000,1.00000,1,  100.0,     9.000,     0.000,   1,1.0000,   0,1.0000,   0,1.0000,   0,1.0000,1,1.0000
   11,'1 ',    30.874,     4.977,    45.500,   -35.500,1.01000,    0,   100.000,   0.00000,   1.00000,   0.00000,   0.00000,1.00000,1,  100.0,    73.370,    20.250,   1,1.0000,   0,1.0000,   0,1.0000,   0,1.0000,0,1.0000
   11,'2 ',    30.874,     4.977,    45.500,   -35.500,1.01000,    0,   100.000,   0.00000,   1.00000,   0.00000,   0.00000,1.00000,1,  100.0,    73.370,    20.250,   1,1.0000,   0,1.0000,   0,1.0000,   0,1.0000,0,1.0000
   11,'3 ',    30.874,     4.977,    45.500,   -35.500,1.01000,    0,   100.000,   0.00000,   1.00000,   0.00000,   0.00000,1.00000,1,  100.0,    73.370,    20.250,   1,1.0000,   0,1.0000,   0,1.0000,   0,1.0000,0,1.0000
   11,'4 ',    30.874,     4.977,    45.500,   -35.500,1.01000,    0,   100.000,   0.00000,   1.00000,   0.00000,   0.00000,1.00000,1,  100.0,    73.370,    20.250,   1,1.0000,   0,1.0000,   0,1.0000,   0,1.0000,0,1.0000
   12,'1 ',     6.000,    34.857,    42.670,   -42.670,1.01000,    0,   100.000,   0.00000,   1.00000,   0.00000,   0.00000,1.00000,1,  100.0,    88.030,     6.000,   1,1.0000,   0,1.0000,   0,1.0000,   0,1.0000,0,1.0000
   12,'2 ',     6.000,    34.857,    42.670,   -42.670,1.01000,    0,   100.000,   0.00000,   1.00000,   0.00000,   0.00000,1.00000,1,  100.0,    88.030,     6.000,   1,1.0000,   0,1.0000,   0,1.0000,   0,1.0000,0,1.0000
   12,'3 ',     6.000,    34.857,    42.670,   -42.670,1.01000,    0,   100.000,   0.00000,   1.00000,   0.00000,   0.00000,1.00000,1,  100.0,    88.030,     6.000,   1,1.0000,   0,1.0000,   0,1.0000,   0,1.0000,0,1.0000
   13,'1 ',     2.670,    19.466,    41.330,   -41.330,1.00000,    0,   100.000,   0.00000,   1.00000,   0.00000,   0.00000,1.00000,1,   97.7,     2.670,     0.000,   1,1.0000,   0,1.0000,   0,1.0000,   0,1.0000,1,1.0000
   13,'2 ',     2.670,    19.466,    41.330,   -41.330,1.00000,    0,   100.000,   0.00000,   1.00000,   0.00000,   0.00000,1.00000,1,   97.7,     2.670,     0.000,   1,1.0000,   0,1.0000,   0,1.0000,   0,1.0000,1,1.0000
   13,'3 ',     2.670,    19.466,    41.330,   -41.330,1.00000,    0,   100.000,   0.00000,   1.00000,   0.00000,   0.00000,1.00000,1,   97.7,     2.670,     0.000,   1,1.0000,   0,1.0000,   0,1.0000,   0,1.0000,1,1.0000
   14,'1 ',   114.440,    35.414,   179.000,  -124.000,1.01000,    0,   100.000,   0.00000,   1.00000,   0.00000,   0.00000,1.00000,1,  100.0,   256.100,    20.000,   1,1.0000,   0,1.0000,   0,1.0000,   0,1.0000,0,1.0000
   15,'1 ',    17.750,    14.798,    33.500,   -28.500,1.01000,    0,   100.000,   0.00000,   1.00000,   0.00000,   0.00000,1.00000,1,  100.0,    59.100,    17.750,   1,1.0000,   0,1.0000,   0,1.0000,   0,1.0000,0,1.0000
   15,'2 ',    17.750,    14.798,    33.500,   -28.500,1.01000,    0,   100.000,   0.00000,   1.00000,   0.00000,   0.00000,1.00000,1,  100.0,    59.100,    17.750,   1,1.0000,   0,1.0000,   0,1.0000,   0,1.0000,0,1.0000
   16,'1 ',     2.670,    38.000,    38.000,   -38.000,1.01000,    0,   100.000,   0.00000,   1.00000,   0.00000,   0.00000,1.00000,1,   44.5,     2.670,     0.000,   1,1.0000,   0,1.0000,   0,1.0000,   0,1.0000,1,1.0000
   16,'2 ',     2.670,    38.000,    38.000,   -38.000,1.01000,    0,   100.000,   0.00000,   1.00000,   0.00000,   0.00000,1.00000,1,   44.5,     2.670,     0.000,   1,1.0000,   0,1.0000,   0,1.0000,   0,1.0000,1,1.0000
   16,'3 ',     2.670,    38.000,    38.000,   -38.000,1.01000,    0,   100.000,   0.00000,   1.00000,   0.00000,   0.00000,1.00000,1,   44.5,     2.670,     0.000,   1,1.0000,   0,1.0000,   0,1.0000,   0,1.0000,1,1.0000
   17,'1 ',    45.000,  -106.000,   135.000,  -106.000,1.00000,    0,   100.000,   0.00000,   1.00000,   0.00000,   0.00000,1.00000,1,  202.9,   218.500,    45.000,   1,1.0000,   0,1.0000,   0,1.0000,   0,1.0000,0,1.0000
   18,'1 ',   106.400,    32.704,   103.000,  -103.000,1.01000,    0,   100.000,   0.00000,   1.00000,   0.00000,   0.00000,1.00000,1,  100.0,   212.000,    80.000,   1,1.0000,   0,1.0000,   0,1.0000,   0,1.0000,0,1.0000
   19,'1 ',   200.000,  -162.833,   166.000,  -166.000,1.00000,    0,   100.000,   0.00000,   1.00000,   0.00000,   0.00000,1.00000,1,   46.3,   200.000,     0.000,   1,1.0000,   0,1.0000,   0,1.0000,   0,1.0000,1,1.0000
   20,'1 ',     6.000,   -29.661,    97.000,   -97.000,1.01000,    0,   100.000,   0.00000,   1.00000,   0.00000,   0.00000,1.00000,1,   69.8,     6.000,     0.000,   1,1.0000,   0,1.0000,   0,1.0000,   0,1.0000,1,1.0000
   21,'1 ',    30.000,    -1.177,    30.670,   -30.670,1.01000,    0,   100.000,   0.00000,   1.00000,   0.00000,   0.00000,1.00000,1,   89.8,    63.000,    30.000,   1,1.0000,   0,1.0000,   0,1.0000,   0,1.0000,0,1.0000
   21,'2 ',    30.000,    -1.177,    30.670,   -30.670,1.01000,    0,   100.000,   0.00000,   1.00000,   0.00000,   0.00000,1.00000,1,   89.8,    63.000,    30.000,   1,1.0000,   0,1.0000,   0,1.0000,   0,1.0000,0,1.0000
   21,'3 ',    30.000,    -1.177,    30.670,   -30.670,1.01000,    0,   100.000,   0.00000,   1.00000,   0.00000,   0.00000,1.00000,1,   89.8,    63.000,    30.000,   1,1.0000,   0,1.0000,   0,1.0000,   0,1.0000,0,1.0000
   22,'1 ',     3.000,     9.540,    44.500,   -44.500,1.01000,    0,   100.000,   0.00000,   1.00000,   0.00000,   0.00000,1.00000,1,  100.0,     3.000,     0.000,   1,1.0000,   0,1.0000,   0,1.0000,   0,1.0000,1,1.0000
   22,'2 ',     3.000,     9.540,    44.500,   -44.500,1.01000,    0,   100.000,   0.00000,   1.00000,   0.00000,   0.00000,1.00000,1,  100.0,     3.000,     0.000,   1,1.0000,   0,1.0000,   0,1.0000,   0,1.0000,1,1.0000
   23,'1 ',    30.000,    22.210,    37.330,   -29.330,1.01000,    0,   100.000,   0.00000,   1.00000,   0.00000,   0.00000,1.00000,1,  100.0,    60.500,    30.000,   1,1.0000,   0,1.0000,   0,1.0000,   0,1.0000,0,1.0000
   23,'2 ',    30.000,    22.210,    37.330,   -29.330,1.01000,    0,   100.000,   0.00000,   1.00000,   0.00000,   0.00000,1.00000,1,  100.0,    60.500,    30.000,   1,1.0000,   0,1.0000,   0,1.0000,   0,1.0000,0,1.0000
   23,'3 ',    30.000,    22.210,    37.330,   -29.330,1.01000,    0,   100.000,   0.00000,   1.00000,   0.00000,   0.00000,1.00000,1,  100.0,    60.500,    30.000,   1,1.0000,   0,1.0000,   0,1.0000,   0,1.0000,0,1.0000
   24,'1 ',    10.000,    23.981,    56.000,   -43.500,1.01000,    0,   100.000,   0.00000,   1.00000,   0.00000,   0.00000,1.00000,1,  100.0,    90.000,    10.000,   1,1.0000,   0,1.0000,   0,1.0000,   0,1.0000,0,1.0000
   24,'2 ',    10.000,    23.981,    56.000,   -43.500,1.01000,    0,   100.000,   0.00000,   1.00000,   0.00000,   0.00000,1.00000,1,  100.0,    90.000,    10.000,   1,1.0000,   0,1.0000,   0,1.0000,   0,1.0000,0,1.0000
   25,'1 ',     6.000,    22.517,    29.000,   -29.000,1.01000,    0,   100.000,   0.00000,   1.00000,   0.00000,   0.00000,1.00000,1,  100.0,    59.930,     6.000,   1,1.0000,   0,1.0000,   0,1.0000,   0,1.0000,0,1.0000
   25,'2 ',     6.000,    22.517,    29.000,   -29.000,1.01000,    0,   100.000,   0.00000,   1.00000,   0.00000,   0.00000,1.00000,1,  100.0,    59.930,     6.000,   1,1.0000,   0,1.0000,   0,1.0000,   0,1.0000,0,1.0000
   25,'3 ',     6.000,    22.517,    29.000,   -29.000,1.01000,    0,   100.000,   0.00000,   1.00000,   0.00000,   0.00000,1.00000,1,  100.0,    59.930,     6.000,   1,1.0000,   0,1.0000,   0,1.0000,   0,1.0000,0,1.0000
   26,'1 ',    48.700,    -2.291,    85.000,   -85.000,1.01000,    0,   100.000,   0.00000,   1.00000,   0.00000,   0.00000,1.00000,1,  100.0,    48.700,     0.000,   1,1.0000,   0,1.0000,   0,1.0000,   0,1.0000,1,1.0000
   27,'1 ',     2.500,    -9.818,    38.500,   -38.500,1.00000,    0,   100.000,   0.00000,   1.00000,   0.00000,   0.00000,1.00000,1,  100.0,     2.500,     0.000,   1,1.0000,   0,1.0000,   0,1.0000,   0,1.0000,1,1.0000
   27,'2 ',     2.500,    -9.818,    38.500,   -38.500,1.00000,    0,   100.000,   0.00000,   1.00000,   0.00000,   0.00000,1.00000,1,  100.0,     2.500,     0.000,   1,1.0000,   0,1.0000,   0,1.0000,   0,1.0000,1,1.0000
   28,'1 ',     6.000,    18.617,    38.000,   -38.000,1.01000,    0,   100.000,   0.00000,   1.00000,   0.00000,   0.00000,1.00000,1,  100.0,    78.800,     6.000,   1,1.0000,   0,1.0000,   0,1.0000,   0,1.0000,0,1.0000
   28,'2 ',     6.000,    18.617,    38.000,   -38.000,1.01000,    0,   100.000,   0.00000,   1.00000,   0.00000,   0.00000,1.00000,1,  100.0,    78.800,     6.000,   1,1.0000,   0,1.0000,   0,1.0000,   0,1.0000,0,1.0000
   29,'1 ',     5.000,     7.410,    74.000,   -74.000,1.01000,    0,   100.000,   0.00000,   1.00000,   0.00000,   0.00000,1.00000,1,  100.0,     5.000,     0.000,   1,1.0000,   0,1.0000,   0,1.0000,   0,1.0000,1,1.0000
   30,'1 ',    53.470,    -3.582,    73.000,   -73.000,1.01000,    0,   100.000,   0.00000,   1.00000,   0.00000,   0.00000,1.00000,1,  100.0,    53.470,     0.000,   1,1.0000,   0,1.0000,   0,1.0000,   0,1.0000,1,1.0000
   31,'1 ',   150.000,   -83.677,   133.000,  -133.000,1.00000,    0,   100.000,   0.00000,   1.00000,   0.00000,   0.00000,1.00000,1,   93.3,   150.000,     0.000,   1,1.0000,   0,1.0000,   0,1.0000,   0,1.0000,1,1.0000
   32,'1 ',     8.000,     6.494,    73.000,   -73.000,1.01000,    0,   100.000,   0.00000,   1.00000,   0.00000,   0.00000,1.00000,1,  100.0,     8.000,     0.000,   1,1.0000,   0,1.0000,   0,1.0000,   0,1.0000,1,1.0000
   33,'1 ',     8.000,     5.673,    73.000,   -73.000,1.01000,    0,   100.000,   0.00000,   1.00000,   0.00000,   0.00000,1.00000,1,  100.0,     8.000,     0.000,   1,1.0000,   0,1.0000,   0,1.0000,   0,1.0000,1,1.0000
   34,'1 ',    30.000,    58.970,    99.000,   -66.000,1.01000,    0,   100.000,   0.00000,   1.00000,   0.00000,   0.00000,1.00000,1,  100.0,   136.000,    30.000,   1,1.0000,   0,1.0000,   0,1.0000,   0,1.0000,0,1.0000
   35,'1 ',    16.000,     3.280,     9.880,    -7.750,1.01000,    0,   100.000,   0.00000,   1.00000,   0.00000,   0.00000,1.00000,1,  100.0,    16.000,     2.500,   1,1.0000,   0,1.0000,   0,1.0000,   0,1.0000,0,1.0000
   35,'2 ',    16.000,     3.280,     9.880,    -7.750,1.01000,    0,   100.000,   0.00000,   1.00000,   0.00000,   0.00000,1.00000,1,  100.0,    16.000,     2.500,   1,1.0000,   0,1.0000,   0,1.0000,   0,1.0000,0,1.0000
   35,'3 ',    16.000,     3.280,     9.880,    -7.750,1.01000,    0,   100.000,   0.00000,   1.00000,   0.00000,   0.00000,1.00000,1,  100.0,    16.000,     2.500,   1,1.0000,   0,1.0000,   0,1.0000,   0,1.0000,0,1.0000
   35,'4 ',    16.000,     3.280,     9.880,    -7.750,1.01000,    0,   100.000,   0.00000,   1.00000,   0.00000,   0.00000,1.00000,1,  100.0,    16.000,     2.500,   1,1.0000,   0,1.0000,   0,1.0000,   0,1.0000,0,1.0000
   35,'5 ',    16.000,     3.280,     9.880,    -7.750,1.01000,    0,   100.000,   0.00000,   1.00000,   0.00000,   0.00000,1.00000,1,  100.0,    16.000,     2.500,   1,1.0000,   0,1.0000,   0,1.0000,   0,1.0000,0,1.0000
   35,'6 ',    16.000,     3.280,     9.880,    -7.750,1.01000,    0,   100.000,   0.00000,   1.00000,   0.00000,   0.00000,1.00000,1,  100.0,    16.000,     2.500,   1,1.0000,   0,1.0000,   0,1.0000,   0,1.0000,0,1.0000
   35,'7 ',    16.000,     3.280,     9.880,    -7.750,1.01000,    0,   100.000,   0.00000,   1.00000,   0.00000,   0.00000,1.00000,1,  100.0,    16.000,     2.500,   1,1.0000,   0,1.0000,   0,1.0000,   0,1.0000,0,1.0000
   35,'8 ',    16.000,     3.280,     9.880,    -7.750,1.01000,    0,   100.000,   0.00000,   1.00000,   0.00000,   0.00000,1.00000,1,  100.0,    16.000,     2.500,   1,1.0000,   0,1.0000,   0,1.0000,   0,1.0000,0,1.0000
   36,'1 ',    55.000,    20.908,    94.000,   -60.000,1.01000,    0,   100.000,   0.00000,   1.00000,   0.00000,   0.00000,1.00000,1,  100.0,    57.000,    55.000,   1,1.0000,   0,1.0000,   0,1.0000,   0,1.0000,0,1.0000
   37,'1 ',    36.000,     4.027,    40.000,   -40.000,1.01000,    0,   100.000,   0.00000,   1.00000,   0.00000,   0.00000,1.00000,1,  100.0,   119.000,    36.000,   1,1.0000,   0,1.0000,   0,1.0000,   0,1.0000,0,1.0000
   38,'1 ',    29.260,    -2.330,    18.330,   -18.330,1.01000,    0,   100.000,   0.00000,   1.00000,   0.00000,   0.00000,1.00000,1,  100.0,    29.260,     0.000,   1,1.0000,   0,1.0000,   0,1.0000,   0,1.0000,1,1.0000
   38,'2 ',    29.260,    -2.330,    18.330,   -18.330,1.01000,    0,   100.000,   0.00000,   1.00000,   0.00000,   0.00000,1.00000,1,  100.0,    29.260,     0.000,   1,1.0000,   0,1.0000,   0,1.0000,   0,1.0000,1,1.0000
   38,'3 ',    29.260,    -2.330,    18.330,   -18.330,1.01000,    0,   100.000,   0.00000,   1.00000,   0.00000,   0.00000,1.00000,1,  100.0,    29.260,     0.000,   1,1.0000,   0,1.0000,   0,1.0000,   0,1.0000,1,1.0000
   39,'1 ',    28.800,    29.000,    29.000,   -26.500,1.01000,    0,   100.000,   0.00000,   1.00000,   0.00000,   0.00000,1.00000,1,  100.0,    54.000,    22.500,   1,1.0000,   0,1.0000,   0,1.0000,   0,1.0000,0,1.0000
   39,'2 ',    28.800,    29.000,    29.000,   -26.500,1.01000,    0,   100.000,   0.00000,   1.00000,   0.00000,   0.00000,1.00000,1,  100.0,    54.000,    22.500,   1,1.0000,   0,1.0000,   0,1.0000,   0,1.0000,0,1.0000
   40,'1 ',    14.230,    -1.900,    48.000,   -48.000,1.01000,    0,   100.000,   0.00000,   1.00000,   0.00000,   0.00000,1.00000,1,  100.0,    14.230,     0.000,   1,1.0000,   0,1.0000,   0,1.0000,   0,1.0000,1,1.0000
   41,'1 ',    61.190,    -4.608,    48.000,   -48.000,1.01000,    0,   100.000,   0.00000,   1.00000,   0.00000,   0.00000,1.00000,1,  100.0,    61.190,     0.000,   1,1.0000,   0,1.0000,   0,1.0000,   0,1.0000,1,1.0000
   42,'1 ',     5.990,     7.727,    48.000,   -48.000,1.01000,    0,   100.000,   0.00000,   1.00000,   0.00000,   0.00000,1.00000,1,  100.0,     5.990,     0.000,   1,1.0000,   0,1.0000,   0,1.0000,   0,1.0000,1,1.0000
   43,'1 ',     6.080,    -0.537,    48.000,   -48.000,1.01000,    0,   100.000,   0.00000,   1.00000,   0.00000,   0.00000,1.00000,1,  100.0,     6.080,     0.000,   1,1.0000,   0,1.0000,   0,1.0000,   0,1.0000,1,1.0000
   44,'1 ',     5.000,     9.603,    47.000,   -47.000,1.00000,    0,   100.000,   0.00000,   1.00000,   0.00000,   0.00000,1.00000,1,   90.0,     5.000,     0.000,   1,1.0000,   0,1.0000,   0,1.0000,   0,1.0000,1,1.0000
   45,'1 ',    13.000,    12.459,    28.000,   -22.000,1.01000,    0,   100.000,   0.00000,   1.00000,   0.00000,   0.00000,1.00000,1,  100.0,    45.100,    13.000,   1,1.0000,   0,1.0000,   0,1.0000,   0,1.0000,0,1.0000
   45,'2 ',    13.000,    12.459,    28.000,   -22.000,1.01000,    0,   100.000,   0.00000,   1.00000,   0.00000,   0.00000,1.00000,1,  100.0,    45.100,    13.000,   1,1.0000,   0,1.0000,   0,1.0000,   0,1.0000,0,1.0000
...